Version 4
SHEET 1 880 680
WIRE 368 0 176 0
WIRE 480 0 432 0
WIRE 512 0 480 0
WIRE 176 64 176 0
WIRE 240 64 176 64
WIRE 480 80 480 0
WIRE 480 80 304 80
WIRE 240 96 80 96
WIRE 80 128 80 96
WIRE 80 256 80 208
FLAG 80 256 0
SYMBOL voltage 80 112 R0
WINDOW 123 0 0 Left 0
WINDOW 39 0 0 Left 0
SYMATTR InstName V1
SYMATTR Value SINE(0 100m 1k)
SYMBOL OpAmps\\ua741 272 16 R0
SYMATTR InstName U1
SYMBOL diode 432 -16 R90
WINDOW 0 0 32 VBottom 2
WINDOW 3 32 32 VTop 2
SYMATTR InstName D1
TEXT 384 168 Left 2 !.tran 10m
TEXT 384 192 Left 2 !.inc ua741.lib
